tests/main/reference/launch_svc_tfo/outputIIDM.xml
<?xml version="1.0" encoding="UTF-8"?>
<iidm:network xmlns:iidm="http://www.powsybl.org/schema/iidm/1_5" id="ieee14bus" caseDate="2017-06-09T10:14:24.146000+02:00" forecastDistance="0" sourceFormat="CIM1">
    <iidm:substation id="_BUS___10_SS" name="BUS   10_SS" country="AF" geographicalTags="_SGR_01">
        <iidm:voltageLevel id="_BUS___10_VL" name="BUS   10_VL" nominalV="13.800000000000001" topologyKind="BUS_BREAKER">
            <iidm:busBreakerTopology>
                <iidm:bus id="_BUS___10_TN" v="14.47706342512304" angle="-4.800532191362139"/>
            </iidm:busBreakerTopology>
            <iidm:load id="_LOAD__10_EC" name="LOAD  10" loadType="UNDEFINED" p0="9" q0="5.7999999999999998" bus="_BUS___10_TN" connectableBus="_BUS___10_TN" p="9" q="5.7999999999999998"/>
        </iidm:voltageLevel>
    </iidm:substation>
    <iidm:substation id="_BUS___11_SS" name="BUS   11_SS" country="AF" geographicalTags="_SGR_01">
        <iidm:voltageLevel id="_BUS___11_VL" name="BUS   11_VL" nominalV="13.800000000000001" topologyKind="BUS_BREAKER">
            <iidm:busBreakerTopology>
                <iidm:bus id="_BUS___11_TN" v="14.57148185145018" angle="-4.5029224197882431"/>
            </iidm:busBreakerTopology>
            <iidm:load id="_LOAD__11_EC" name="LOAD  11" loadType="UNDEFINED" p0="3.5" q0="1.8" bus="_BUS___11_TN" connectableBus="_BUS___11_TN" p="3.5000000000000004" q="1.8000000000000003"/>
        </iidm:voltageLevel>
    </iidm:substation>
    <iidm:substation id="_BUS___12_SS" name="BUS   12_SS" country="AF" geographicalTags="_SGR_01">
        <iidm:voltageLevel id="_BUS___12_VL" name="BUS   12_VL" nominalV="13.800000000000001" topologyKind="BUS_BREAKER">
            <iidm:busBreakerTopology>
                <iidm:bus id="_BUS___12_TN" v="14.558720739217259" angle="-4.7997579554537637"/>
            </iidm:busBreakerTopology>
            <iidm:load id="_LOAD__12_EC" name="LOAD  12" loadType="UNDEFINED" p0="6.0999999999999996" q0="1.6000000000000001" bus="_BUS___12_TN" connectableBus="_BUS___12_TN" p="6.0999999999999996" q="1.6000000000000001"/>
        </iidm:voltageLevel>
    </iidm:substation>
    <iidm:substation id="_BUS___13_SS" name="BUS   13_SS" country="AF" geographicalTags="_SGR_01">
        <iidm:voltageLevel id="_BUS___13_VL" name="BUS   13_VL" nominalV="13.800000000000001" topologyKind="BUS_BREAKER">
            <iidm:busBreakerTopology>
                <iidm:bus id="_BUS___13_TN" v="14.490119436194323" angle="-4.8766655225473734"/>
            </iidm:busBreakerTopology>
            <iidm:load id="_LOAD__13_EC" name="LOAD  13" loadType="UNDEFINED" p0="13.5" q0="5.7999999999999998" bus="_BUS___13_TN" connectableBus="_BUS___13_TN" p="13.5" q="5.7999999999999998"/>
        </iidm:voltageLevel>
    </iidm:substation>
    <iidm:substation id="_BUS___14_SS" name="BUS   14_SS" country="AF" geographicalTags="_SGR_01">
        <iidm:voltageLevel id="_BUS___14_VL" name="BUS   14_VL" nominalV="13.800000000000001" topologyKind="BUS_BREAKER">
            <iidm:busBreakerTopology>
                <iidm:bus id="_BUS___14_TN" v="14.269725958264694" angle="-5.7445695541937321"/>
            </iidm:busBreakerTopology>
            <iidm:load id="_LOAD__14_EC" name="LOAD  14" loadType="UNDEFINED" p0="14.9" q0="5" bus="_BUS___14_TN" connectableBus="_BUS___14_TN" p="14.899999999999999" q="5"/>
        </iidm:voltageLevel>
    </iidm:substation>
    <iidm:substation id="_BUS____1_SS" name="BUS    1_SS" country="AF" geographicalTags="_SGR_01">
        <iidm:voltageLevel id="_BUS____1_VL" name="BUS    1_VL" nominalV="69" topologyKind="BUS_BREAKER">
            <iidm:busBreakerTopology>
                <iidm:bus id="_BUS____1_TN" v="73.131714217472918" angle="10.348062366062788"/>
            </iidm:busBreakerTopology>
            <iidm:generator id="_GEN____1_SM" name="GEN    1" energySource="OTHER" minP="-9999" maxP="9999" voltageRegulatorOn="true" targetP="232.34630000000001" targetV="73.140000000000001" targetQ="-16.759" bus="_BUS____1_TN" connectableBus="_BUS____1_TN" p="-232.43159218026523" q="-8.7270924981806939">
                <iidm:minMaxReactiveLimits minQ="-999" maxQ="999"/>
            </iidm:generator>
        </iidm:voltageLevel>
    </iidm:substation>
    <iidm:substation id="_BUS____2_SS" name="BUS    2_SS" country="AF" geographicalTags="_SGR_01">
        <iidm:voltageLevel id="_BUS____2_VL" name="BUS    2_VL" nominalV="69" topologyKind="BUS_BREAKER">
            <iidm:busBreakerTopology>
                <iidm:bus id="_BUS____2_TN" v="71.19549320144759" angle="5.544181671800839"/>
            </iidm:busBreakerTopology>
            <iidm:generator id="_GEN____2_SM" name="GEN    2" energySource="OTHER" minP="-9999" maxP="9999" voltageRegulatorOn="true" targetP="40" targetV="72.105000000000004" targetQ="42.399999999999999" bus="_BUS____2_TN" connectableBus="_BUS____2_TN" p="-40.085292180265192" q="-4.5930041248236684">
                <iidm:reactiveCapabilityCurve>
                    <iidm:point p="0" minQ="-690" maxQ="690"/>
                    <iidm:point p="2300" minQ="-680" maxQ="680"/>
                </iidm:reactiveCapabilityCurve>
            </iidm:generator>
            <iidm:load id="_LOAD___2_EC" name="LOAD   2" loadType="UNDEFINED" p0="21.699999999999999" q0="12.699999999999999" bus="_BUS____2_TN" connectableBus="_BUS____2_TN" p="21.700007333469927" q="12.700007153231843"/>
        </iidm:voltageLevel>
    </iidm:substation>
    <iidm:substation id="_BUS____3_SS" name="BUS    3_SS" country="AF" geographicalTags="_SGR_01">
        <iidm:voltageLevel id="_BUS____3_VL" name="BUS    3_VL" nominalV="69" topologyKind="BUS_BREAKER">
            <iidm:busBreakerTopology>
                <iidm:bus id="_BUS____3_TN" v="69.681593107909478" angle="-2.5112064179097429"/>
            </iidm:busBreakerTopology>
            <iidm:generator id="_GEN____3_SM" name="GEN    3" energySource="OTHER" minP="-9999" maxP="9999" voltageRegulatorOn="true" targetP="0" targetV="69.689999999999998" targetQ="23.399999999999999" bus="_BUS____3_TN" connectableBus="_BUS____3_TN" p="-0" q="-35.085773444859406">
                <iidm:minMaxReactiveLimits minQ="0" maxQ="40"/>
            </iidm:generator>
            <iidm:load id="_LOAD___3_EC" name="LOAD   3" loadType="UNDEFINED" p0="94.200000000000003" q0="19" bus="_BUS____3_TN" connectableBus="_BUS____3_TN" p="94.20000030856356" q="19.000000103728016"/>
        </iidm:voltageLevel>
    </iidm:substation>
    <iidm:substation id="_BUS____4_SS" name="BUS    4_SS" country="AF" geographicalTags="_SGR_01">
        <iidm:voltageLevel id="_BUS____9_VL" name="BUS    9_VL" nominalV="13.800000000000001" topologyKind="BUS_BREAKER">
            <iidm:busBreakerTopology>
                <iidm:bus id="_BUS____9_TN" v="14.539989422314067" angle="-4.6377703720673109"/>
            </iidm:busBreakerTopology>
            <iidm:load id="_LOAD___9_EC" name="LOAD   9" loadType="UNDEFINED" p0="29.5" q0="16.600000000000001" bus="_BUS____9_TN" connectableBus="_BUS____9_TN" p="29.5" q="16.600000000000001"/>
            <iidm:shunt id="_BANK___9_SC" name="BANK   9" sectionCount="1" voltageRegulatorOn="false" bus="_BUS____9_TN" connectableBus="_BUS____9_TN" q="-21.092293231555871">
                <iidm:shuntLinearModel bPerSection="0.099768999999999997" maximumSectionCount="1"/>
            </iidm:shunt>
        </iidm:voltageLevel>
        <iidm:voltageLevel id="_BUS____7_VL" name="BUS    7_VL" nominalV="13.800000000000001" topologyKind="BUS_BREAKER">
            <iidm:busBreakerTopology>
                <iidm:bus id="_BUS____7_TN" v="14.616059112207578" angle="-3.0578102906983498"/>
            </iidm:busBreakerTopology>
        </iidm:voltageLevel>
        <iidm:voltageLevel id="_BUS____4_VL" name="BUS    4_VL" nominalV="69" topologyKind="BUS_BREAKER">
            <iidm:busBreakerTopology>
                <iidm:bus id="_BUS____4_TN" v="69.85911563966738" angle="0"/>
            </iidm:busBreakerTopology>
            <iidm:load id="_LOAD___4_EC" name="LOAD   4" loadType="UNDEFINED" p0="47.799999999999997" q0="-3.8999999999999999" bus="_BUS____4_TN" connectableBus="_BUS____4_TN" p="47.800011149410359" q="-3.900001516133325"/>
        </iidm:voltageLevel>
        <iidm:twoWindingsTransformer id="_BUS____4-BUS____9-1_PT" name="BUS    4-BUS    9-1" r="0" x="1.0591881000000001" g="0" b="0" ratedU1="69" ratedU2="13.800000000000001" bus1="_BUS____4_TN" connectableBus1="_BUS____4_TN" voltageLevelId1="_BUS____4_VL" bus2="_BUS____9_TN" connectableBus2="_BUS____9_TN" voltageLevelId2="_BUS____9_VL" p1="16.004147239683579" q1="-1.0016089816368006" p2="-16.004147239683579" q2="2.3116271654803406">
            <iidm:ratioTapChanger lowTapPosition="1" tapPosition="4" loadTapChangingCapabilities="false">
                <iidm:step r="0" x="0" g="0" b="0" rho="1.1111112000000001"/>
                <iidm:step r="0" x="0" g="0" b="0" rho="1.0834235999999999"/>
                <iidm:step r="0" x="0" g="0" b="0" rho="1.0570824999999999"/>
                <iidm:step r="0" x="0" g="0" b="0" rho="1.0319917000000001"/>
                <iidm:step r="0" x="0" g="0" b="0" rho="1.015744"/>
                <iidm:step r="0" x="0" g="0" b="0" rho="1"/>
                <iidm:step r="0" x="0" g="0" b="0" rho="0.98039220000000005"/>
                <iidm:step r="0" x="0" g="0" b="0" rho="0.96153849999999996"/>
                <iidm:step r="0" x="0" g="0" b="0" rho="0.94339629999999997"/>
                <iidm:step r="0" x="0" g="0" b="0" rho="0.92592589999999997"/>
                <iidm:step r="0" x="0" g="0" b="0" rho="0.90909090000000004"/>
            </iidm:ratioTapChanger>
            <iidm:currentLimits1 permanentLimit="836.74000000000001"/>
            <iidm:currentLimits2 permanentLimit="4183.6999999999998"/>
        </iidm:twoWindingsTransformer>
        <iidm:twoWindingsTransformer id="_BUS____4-BUS____7-1_PT" name="BUS    4-BUS    7-1" r="0" x="0.39824801999999998" g="0" b="0" ratedU1="69" ratedU2="13.800000000000001" bus1="_BUS____4_TN" connectableBus1="_BUS____4_TN" voltageLevelId1="_BUS____4_VL" bus2="_BUS____7_TN" connectableBus2="_BUS____7_TN" voltageLevelId2="_BUS____7_VL" p1="27.968719057093093" q1="-11.089330561126287" p2="-27.9687190570931" q2="12.855696127627613">
            <iidm:ratioTapChanger lowTapPosition="1" tapPosition="5" loadTapChangingCapabilities="false">
                <iidm:step r="0" x="0" g="0" b="0" rho="1.1111112000000001"/>
                <iidm:step r="0" x="0" g="0" b="0" rho="1.0875475999999999"/>
                <iidm:step r="0" x="0" g="0" b="0" rho="1.0649626999999999"/>
                <iidm:step r="0" x="0" g="0" b="0" rho="1.0432965999999999"/>
                <iidm:step r="0" x="0" g="0" b="0" rho="1.0224948"/>
                <iidm:step r="0" x="0" g="0" b="0" rho="1"/>
                <iidm:step r="0" x="0" g="0" b="0" rho="0.98039215999999996"/>
                <iidm:step r="0" x="0" g="0" b="0" rho="0.96153849999999996"/>
                <iidm:step r="0" x="0" g="0" b="0" rho="0.94339629999999997"/>
                <iidm:step r="0" x="0" g="0" b="0" rho="0.92592589999999997"/>
                <iidm:step r="0" x="0" g="0" b="0" rho="0.90909090000000004"/>
            </iidm:ratioTapChanger>
            <iidm:currentLimits1 permanentLimit="836.74000000000001"/>
            <iidm:currentLimits2 permanentLimit="4183.6999999999998"/>
        </iidm:twoWindingsTransformer>
    </iidm:substation>
    <iidm:substation id="_BUS____5_SS" name="BUS    5_SS" country="AF" geographicalTags="_SGR_01">
        <iidm:voltageLevel id="_BUS____6_VL" name="BUS    6_VL" nominalV="13.800000000000001" topologyKind="BUS_BREAKER">
            <iidm:busBreakerTopology>
                <iidm:bus id="_BUS____6_TN" v="14.765494032324984" angle="-3.945088861448705"/>
            </iidm:busBreakerTopology>
            <iidm:generator id="_GEN____6_SM" name="GEN    6" energySource="OTHER" minP="-9999" maxP="9999" voltageRegulatorOn="true" targetP="0" targetV="14.766" targetQ="12.199999999999999" bus="_BUS____6_TN" connectableBus="_BUS____6_TN" p="-0" q="-15.923832625883854">
                <iidm:minMaxReactiveLimits minQ="-6" maxQ="24"/>
            </iidm:generator>
            <iidm:load id="_LOAD___6_EC" name="LOAD   6" loadType="UNDEFINED" p0="11.199999999999999" q0="7.5" bus="_BUS____6_TN" connectableBus="_BUS____6_TN" p="11.199999999999999" q="7.5"/>
        </iidm:voltageLevel>
        <iidm:voltageLevel id="_BUS____5_VL" name="BUS    5_VL" nominalV="69" topologyKind="BUS_BREAKER">
            <iidm:busBreakerTopology>
                <iidm:bus id="_BUS____5_TN" v="69.981866598849209" angle="1.5543293996173633"/>
            </iidm:busBreakerTopology>
            <iidm:load id="_LOAD___5_EC" name="LOAD   5" loadType="UNDEFINED" p0="7.5999999999999996" q0="1.6000000000000001" bus="_BUS____5_TN" connectableBus="_BUS____5_TN" p="7.6000022733125281" q="1.6000007976535988"/>
        </iidm:voltageLevel>
        <iidm:twoWindingsTransformer id="_BUS____5-BUS____6-1_PT" name="BUS    5-BUS    6-1" r="0" x="0.47994804000000002" g="0" b="0" ratedU1="69" ratedU2="13.800000000000001" bus1="_BUS____5_TN" connectableBus1="_BUS____5_TN" voltageLevelId1="_BUS____5_VL" bus2="_BUS____6_TN" connectableBus2="_BUS____6_TN" voltageLevelId2="_BUS____6_VL" p1="44.277230746806936" q1="10.013963744138371" p2="-44.277230746806936" q2="-5.6284461926796805">
            <iidm:ratioTapChanger lowTapPosition="1" tapPosition="3" loadTapChangingCapabilities="false">
                <iidm:step r="0" x="0" g="0" b="0" rho="1.1111112000000001"/>
                <iidm:step r="0" x="0" g="0" b="0" rho="1.0917030999999999"/>
                <iidm:step r="0" x="0" g="0" b="0" rho="1.0729614000000001"/>
                <iidm:step r="0" x="0" g="0" b="0" rho="1.0474859999999999"/>
                <iidm:step r="0" x="0" g="0" b="0" rho="1.0231923999999999"/>
                <iidm:step r="0" x="0" g="0" b="0" rho="1"/>
                <iidm:step r="0" x="0" g="0" b="0" rho="0.98039220000000005"/>
                <iidm:step r="0" x="0" g="0" b="0" rho="0.96153849999999996"/>
                <iidm:step r="0" x="0" g="0" b="0" rho="0.94339629999999997"/>
                <iidm:step r="0" x="0" g="0" b="0" rho="0.92592589999999997"/>
                <iidm:step r="0" x="0" g="0" b="0" rho="0.90909090000000004"/>
            </iidm:ratioTapChanger>
            <iidm:currentLimits1 permanentLimit="836.74000000000001"/>
            <iidm:currentLimits2 permanentLimit="4183.6999999999998"/>
        </iidm:twoWindingsTransformer>
    </iidm:substation>
    <iidm:substation id="_BUS____8_SS" name="BUS    8_SS" country="AF" geographicalTags="_SGR_01">
        <iidm:voltageLevel id="_BUS____8_VL" name="BUS    8_VL" nominalV="13.800000000000001" topologyKind="BUS_BREAKER">
            <iidm:busBreakerTopology>
                <iidm:bus id="_BUS____8_TN" v="15.041771603312615" angle="-3.0578102966393805"/>
            </iidm:busBreakerTopology>
            <iidm:generator id="_GEN____8_SM" name="GEN    8" energySource="OTHER" minP="-9999" maxP="9999" voltageRegulatorOn="true" targetP="0" targetV="15.042" targetQ="17.399999999999999" bus="_BUS____8_TN" connectableBus="_BUS____8_TN" p="-0" q="-19.088624748101132">
                <iidm:minMaxReactiveLimits minQ="-6" maxQ="24"/>
            </iidm:generator>
        </iidm:voltageLevel>
    </iidm:substation>
    <iidm:line id="_BUS___10-BUS___11-1_AC" name="BUS   10-BUS   11-1" r="0.15625600000000001" x="0.36577799999999999" g1="0" b1="0" g2="0" b2="0" bus1="_BUS___10_TN" connectableBus1="_BUS___10_TN" voltageLevelId1="_BUS___10_VL" bus2="_BUS___11_TN" connectableBus2="_BUS___11_TN" voltageLevelId2="_BUS___11_VL" p1="-3.8805437518712163" q1="-2.0714682548631806" p2="3.8949698124702543" q2="2.1052380659027254">
        <iidm:currentLimits1 permanentLimit="4183.6999999999998"/>
    </iidm:line>
    <iidm:line id="_BUS___12-BUS___13-1_AC" name="BUS   12-BUS   13-1" r="0.42071999999999998" x="0.38065100000000002" g1="0" b1="0" g2="0" b2="0" bus1="_BUS___12_TN" connectableBus1="_BUS___12_TN" voltageLevelId1="_BUS___12_VL" bus2="_BUS___13_TN" connectableBus2="_BUS___13_TN" voltageLevelId2="_BUS___13_VL" p1="1.6404460275966624" q1="0.81115984459921087" p2="-1.6337983873224282" q2="-0.80514531969422054">
        <iidm:currentLimits1 permanentLimit="4183.6999999999998"/>
    </iidm:line>
    <iidm:line id="_BUS___13-BUS___14-1_AC" name="BUS   13-BUS   14-1" r="0.325519" x="0.66276900000000005" g1="0" b1="0" g2="0" b2="0" bus1="_BUS___13_TN" connectableBus1="_BUS___13_TN" voltageLevelId1="_BUS___13_VL" bus2="_BUS___14_TN" connectableBus2="_BUS___14_TN" voltageLevelId2="_BUS___14_VL" p1="5.7280172436341328" q1="2.0409390939626455" p2="-5.6706917496420557" q2="-1.9242222192867118">
        <iidm:currentLimits1 permanentLimit="4183.6999999999998"/>
    </iidm:line>
    <iidm:line id="_BUS____1-BUS____2-1_AC" name="BUS    1-BUS    2-1" r="0.922682" x="2.8170799999999998" g1="0" b1="0.00055450499999999995" g2="0" b2="0.00055450499999999995" bus1="_BUS____1_TN" connectableBus1="_BUS____1_TN" voltageLevelId1="_BUS____1_VL" bus2="_BUS____2_TN" connectableBus2="_BUS____2_TN" voltageLevelId2="_BUS____2_VL" p1="156.57462318200604" q1="2.5083165575480848" p2="-152.34000964013453" q2="4.6442597008508306">
        <iidm:currentLimits1 permanentLimit="836.74000000000001"/>
    </iidm:line>
    <iidm:line id="_BUS____1-BUS____5-1_AC" name="BUS    1-BUS    5-1" r="2.5723699999999998" x="10.6189" g1="0" b1="0.00051670000000000004" g2="0" b2="0.00051670000000000004" bus1="_BUS____1_TN" connectableBus1="_BUS____1_TN" voltageLevelId1="_BUS____1_VL" bus2="_BUS____5_TN" connectableBus2="_BUS____5_TN" voltageLevelId2="_BUS____5_VL" p1="75.856988597496269" q1="6.218827707692018" p2="-73.050520573227502" q2="0.072485208032678841">
        <iidm:currentLimits1 permanentLimit="836.74000000000001"/>
    </iidm:line>
    <iidm:line id="_BUS____2-BUS____3-1_AC" name="BUS    2-BUS    3-1" r="2.23719" x="9.4253499999999999" g1="0" b1="0.00045998749999999998" g2="0" b2="0.00045998749999999998" bus1="_BUS____2_TN" connectableBus1="_BUS____2_TN" voltageLevelId1="_BUS____2_VL" bus2="_BUS____3_TN" connectableBus2="_BUS____3_TN" voltageLevelId2="_BUS____3_VL" p1="73.560032602241847" q1="-3.1628418792727251" p2="-71.17146715711668" q2="8.6608768922611326">
        <iidm:currentLimits1 permanentLimit="836.74000000000001"/>
    </iidm:line>
    <iidm:line id="_BUS____2-BUS____4-1_AC" name="BUS    2-BUS    4-1" r="2.7666200000000001" x="8.3946000000000005" g1="0" b1="0.00035706799999999999" g2="0" b2="0.00035706799999999999" bus1="_BUS____2_TN" connectableBus1="_BUS____2_TN" voltageLevelId1="_BUS____2_VL" bus2="_BUS____4_TN" connectableBus2="_BUS____4_TN" voltageLevelId2="_BUS____4_VL" p1="55.826741322434927" q1="-6.1032057131906177" p2="-54.115583712317125" q2="7.7427721410774506">
        <iidm:currentLimits1 permanentLimit="836.74000000000001"/>
    </iidm:line>
    <iidm:line id="_BUS____2-BUS____5-1_AC" name="BUS    2-BUS    5-1" r="2.7113900000000002" x="8.2784300000000002" g1="0" b1="0.000363369" g2="0" b2="0.000363369" bus1="_BUS____2_TN" connectableBus1="_BUS____2_TN" voltageLevelId1="_BUS____2_VL" bus2="_BUS____5_TN" connectableBus2="_BUS____5_TN" voltageLevelId2="_BUS____5_VL" p1="41.338517996025175" q1="-3.4852375748772388" p2="-40.422966836291899" q2="2.6591732253257345">
        <iidm:currentLimits1 permanentLimit="836.74000000000001"/>
    </iidm:line>
    <iidm:line id="_BUS____3-BUS____4-1_AC" name="BUS    3-BUS    4-1" r="3.19035" x="8.1427399999999999" g1="0" b1="0.00013442550000000001" g2="0" b2="0.00013442550000000001" bus1="_BUS____3_TN" connectableBus1="_BUS____3_TN" voltageLevelId1="_BUS____3_VL" bus2="_BUS____4_TN" connectableBus2="_BUS____4_TN" voltageLevelId2="_BUS____4_VL" p1="-23.02853705826519" q1="7.4248966447286406" p2="23.419853932329477" q2="-7.7348799306100835">
        <iidm:currentLimits1 permanentLimit="836.74000000000001"/>
    </iidm:line>
    <iidm:line id="_BUS____4-BUS____5-1_AC" name="BUS    4-BUS    5-1" r="0.63559299999999996" x="2.0048599999999999" g1="0" b1="0" g2="0" b2="0" bus1="_BUS____4_TN" connectableBus1="_BUS____4_TN" voltageLevelId1="_BUS____4_VL" bus2="_BUS____5_TN" connectableBus2="_BUS____5_TN" voltageLevelId2="_BUS____5_VL" p1="-61.077147617175633" q1="15.983048824014801" p2="61.596254397683538" q2="-14.345622955622453">
        <iidm:currentLimits1 permanentLimit="836.74000000000001"/>
    </iidm:line>
    <iidm:line id="_BUS____6-BUS___11-1_AC" name="BUS    6-BUS   11-1" r="0.18088000000000001" x="0.37878499999999998" g1="0" b1="0" g2="0" b2="0" bus1="_BUS____6_TN" connectableBus1="_BUS____6_TN" voltageLevelId1="_BUS____6_VL" bus2="_BUS___11_TN" connectableBus2="_BUS___11_TN" voltageLevelId2="_BUS___11_VL" p1="7.4545479298712731" q1="4.0300019826632116" p2="-7.3949698127968588" q2="-3.9052380669399005">
        <iidm:currentLimits1 permanentLimit="4183.6999999999998"/>
    </iidm:line>
    <iidm:line id="_BUS____6-BUS___12-1_AC" name="BUS    6-BUS   12-1" r="0.23407" x="0.48716500000000001" g1="0" b1="0" g2="0" b2="0" bus1="_BUS____6_TN" connectableBus1="_BUS____6_TN" voltageLevelId1="_BUS____6_VL" bus2="_BUS___12_TN" connectableBus2="_BUS___12_TN" voltageLevelId2="_BUS___12_VL" p1="7.813031722061532" q1="2.562230935246359" p2="-7.7404460270105639" q2="-2.4111598448481666">
        <iidm:currentLimits1 permanentLimit="4183.6999999999998"/>
    </iidm:line>
    <iidm:line id="_BUS____6-BUS___13-1_AC" name="BUS    6-BUS   13-1" r="0.125976" x="0.248086" g1="0" b1="0" g2="0" b2="0" bus1="_BUS____6_TN" connectableBus1="_BUS____6_TN" voltageLevelId1="_BUS____6_VL" bus2="_BUS___13_TN" connectableBus2="_BUS___13_TN" voltageLevelId2="_BUS___13_VL" p1="17.809650559839998" q1="7.4600459335035021" p2="-17.594218855219523" q2="-7.0357937753743771">
        <iidm:currentLimits1 permanentLimit="4183.6999999999998"/>
    </iidm:line>
    <iidm:line id="_BUS____7-BUS____8-1_AC" name="BUS    7-BUS    8-1" r="0" x="0.33545999999999998" g1="0" b1="0" g2="0" b2="0" bus1="_BUS____7_TN" connectableBus1="_BUS____7_TN" voltageLevelId1="_BUS____7_VL" bus2="_BUS____8_TN" connectableBus2="_BUS____8_TN" voltageLevelId2="_BUS____8_VL" p1="6.7955986497725274e-08" q1="-18.548378151780724" p2="-6.7955986497725274e-08" q2="19.088624753708991">
        <iidm:currentLimits1 permanentLimit="4183.6999999999998"/>
    </iidm:line>
    <iidm:line id="_BUS____7-BUS____9-1_AC" name="BUS    7-BUS    9-1" r="0" x="0.20950299999999999" g1="0" b1="0" g2="0" b2="0" bus1="_BUS____7_TN" connectableBus1="_BUS____7_TN" voltageLevelId1="_BUS____7_VL" bus2="_BUS____9_TN" connectableBus2="_BUS____9_TN" voltageLevelId2="_BUS____9_VL" p1="27.96871898913713" q1="5.6926820241533012" p2="-27.96871898913712" q2="-4.8937609887923967">
        <iidm:currentLimits1 permanentLimit="4183.6999999999998"/>
    </iidm:line>
    <iidm:line id="_BUS____9-BUS___10-1_AC" name="BUS    9-BUS   10-1" r="0.060579000000000001" x="0.16092200000000001" g1="0" b1="0" g2="0" b2="0" bus1="_BUS____9_TN" connectableBus1="_BUS____9_TN" voltageLevelId1="_BUS____9_VL" bus2="_BUS___10_TN" connectableBus2="_BUS___10_TN" voltageLevelId2="_BUS___10_VL" p1="5.1310499600174593" q1="3.7593292611785554" p2="-5.1194562544182451" q2="-3.7285317522656181">
        <iidm:currentLimits1 permanentLimit="4183.6999999999998"/>
    </iidm:line>
    <iidm:line id="_BUS____9-BUS___14-1_AC" name="BUS    9-BUS   14-1" r="0.24206800000000001" x="0.51491200000000004" g1="0" b1="0" g2="0" b2="0" bus1="_BUS____9_TN" connectableBus1="_BUS____9_TN" voltageLevelId1="_BUS____9_VL" bus2="_BUS___14_TN" connectableBus2="_BUS___14_TN" voltageLevelId2="_BUS___14_VL" p1="9.3418162359573316" q1="3.3150977667993757" p2="-9.2293082564333169" q2="-3.0757777874850132">
        <iidm:currentLimits1 permanentLimit="4183.6999999999998"/>
    </iidm:line>
</iidm:network>
